<?xml version="1.0" encoding="UTF-8"?>
<flow xmlns="http://www.springframework.org/schema/webflow"
	xmlns:xsi="http://www.w3.org/2001/XMLSchema-instance"
	xsi:schemaLocation="http://www.springframework.org/schema/webflow 
	http://www.springframework.org/schema/webflow/spring-webflow-2.0.xsd">

	
	<input name="bsaInterfaceVOs" required="true" />
	
	<action-state id="generateBSAInterfaceDtls_Flow">
		<evaluate expression="kEMRADefaultsController.generateFlightRevenueInterfaceDtls(bsaInterfaceVOs)"/>
			<transition to="KE_end" />		 
	</action-state>
	
	<end-state id="KE_end">
	</end-state>
</flow>	