<?xml version="1.0" encoding="UTF-8"?>
<flow xmlns="http://www.springframework.org/schema/webflow"
	xmlns:xsi="http://www.w3.org/2001/XMLSchema-instance"
	xsi:schemaLocation="http://www.springframework.org/schema/webflow 
	http://www.springframework.org/schema/webflow/spring-webflow-2.0.xsd">


	<input name="reportSpec" required="true" />	
	
	<action-state id="generateCN66Report">
		<evaluate expression="mRAGpaBillingTKcontroller.generateCN66Report(reportSpec)" 
			result="flowScope.cn66Details" />
		<transition to="end" />		
	</action-state>


	<end-state id="end">
		<output name="cn66Details" />
	</end-state>
</flow>	